data_image0
_cell_length_a       13.3243
_cell_length_b       12.6404
_cell_length_c       28.098
_cell_angle_alpha    90
_cell_angle_beta     101.448
_cell_angle_gamma    90

_symmetry_space_group_name_H-M    "P 1"
_symmetry_int_tables_number       1

loop_
  _symmetry_equiv_pos_as_xyz
  'x, y, z'

loop_
  _atom_site_label
  _atom_site_occupancy
  _atom_site_fract_x
  _atom_site_fract_y
  _atom_site_fract_z
  _atom_site_thermal_displace_type
  _atom_site_B_iso_or_equiv
  _atom_site_type_symbol
  Ag1      1.0000 0.50246  0.17974  0.36638  Biso   1.000  Ag
  N1       1.0000 0.99793  0.07957  0.26516  Biso   1.000  N
  N2       1.0000 0.59986  0.32260  0.37623  Biso   1.000  N
  N3       1.0000 0.44568  0.01609  0.36703  Biso   1.000  N
  N4       1.0000 0.66150  0.16570  0.14402  Biso   1.000  N
  N5       1.0000 0.35270  0.29080  0.59814  Biso   1.000  N
  N6       1.0000 0.14290  0.04840  0.01451  Biso   1.000  N
  C1       1.0000 0.77816  0.25082  0.33522  Biso   1.000  C
  H1       1.0000 0.82250  0.31530  0.34010  Biso   1.000  H
  C2       1.0000 0.83263  0.16601  0.31057  Biso   1.000  C
  H2       1.0000 0.78890  0.10110  0.30650  Biso   1.000  H
  C3       1.0000 0.04226  0.98666  0.24262  Biso   1.000  C
  H3       1.0000 0.10850  0.96720  0.26360  Biso   1.000  H
  H4       1.0000 0.99550  0.92550  0.24180  Biso   1.000  H
  C4       1.0000 0.84835  0.19971  0.26032  Biso   1.000  C
  H5       1.0000 0.78140  0.21880  0.23990  Biso   1.000  H
  H6       1.0000 0.89260  0.26320  0.26360  Biso   1.000  H
  C5       1.0000 0.89711  0.11246  0.23546  Biso   1.000  C
  H7       1.0000 0.85060  0.05060  0.23010  Biso   1.000  H
  H8       1.0000 0.90700  0.13770  0.20340  Biso   1.000  H
  C6       1.0000 0.05914  0.00682  0.19207  Biso   1.000  C
  C7       1.0000 0.40798  0.97671  0.31652  Biso   1.000  C
  H9       1.0000 0.33560  0.99820  0.30570  Biso   1.000  H
  H10      1.0000 0.41040  0.89840  0.31670  Biso   1.000  H
  C8       1.0000 0.75957  0.21577  0.38469  Biso   1.000  C
  H11      1.0000 0.72100  0.14840  0.38090  Biso   1.000  H
  H12      1.0000 0.82630  0.20260  0.40660  Biso   1.000  H
  C9       1.0000 0.93745  0.13605  0.34030  Biso   1.000  C
  H13      1.0000 0.98200  0.19940  0.34490  Biso   1.000  H
  H14      1.0000 0.92950  0.11120  0.37280  Biso   1.000  H
  C10      1.0000 0.43117  0.10460  0.25208  Biso   1.000  C
  H15      1.0000 0.37070  0.13900  0.25710  Biso   1.000  H
  C11      1.0000 0.46880  0.01718  0.28062  Biso   1.000  C
  C12      1.0000 0.14305  0.06538  0.18466  Biso   1.000  C
  H16      1.0000 0.18730  0.09690  0.21160  Biso   1.000  H
  C13      1.0000 0.55835  0.96797  0.27313  Biso   1.000  C
  H17      1.0000 0.58460  0.90860  0.29240  Biso   1.000  H
  C14      1.0000 0.48097  0.14153  0.21665  Biso   1.000  C
  H18      1.0000 0.45480  0.20070  0.19730  Biso   1.000  H
  C15      1.0000 0.39169  0.04396  0.44591  Biso   1.000  C
  H19      1.0000 0.33290  0.03670  0.46240  Biso   1.000  H
  H20      1.0000 0.41090  0.11970  0.44670  Biso   1.000  H
  C16      1.0000 0.09790  0.03150  0.09943  Biso   1.000  C
  C17      1.0000 0.35934  0.00898  0.39369  Biso   1.000  C
  H21      1.0000 0.33450  0.93500  0.39280  Biso   1.000  H
  H22      1.0000 0.30200  0.05400  0.37720  Biso   1.000  H
  C18      1.0000 0.99386  0.96169  0.15222  Biso   1.000  C
  H23      1.0000 0.93600  0.92220  0.15700  Biso   1.000  H
  C19      1.0000 0.67498  0.28150  0.30406  Biso   1.000  C
  H24      1.0000 0.68610  0.31170  0.27300  Biso   1.000  H
  H25      1.0000 0.63230  0.21720  0.29650  Biso   1.000  H
  C20      1.0000 0.56975  0.09130  0.20965  Biso   1.000  C
  C21      1.0000 0.48215  0.97989  0.47389  Biso   1.000  C
  H26      1.0000 0.45910  0.90490  0.47560  Biso   1.000  H
  C22      1.0000 0.50520  0.38012  0.44136  Biso   1.000  C
  C23      1.0000 0.16270  0.07830  0.13879  Biso   1.000  C
  H27      1.0000 0.22000  0.11870  0.13400  Biso   1.000  H
  C24      1.0000 0.60907  0.00490  0.23800  Biso   1.000  C
  H28      1.0000 0.67030  0.97160  0.23330  Biso   1.000  H
  C25      1.0000 0.61810  0.36144  0.32905  Biso   1.000  C
  H29      1.0000 0.65830  0.42780  0.33430  Biso   1.000  H
  H30      1.0000 0.55150  0.37780  0.30760  Biso   1.000  H
  C26      1.0000 0.70047  0.29713  0.40778  Biso   1.000  C
  H31      1.0000 0.68910  0.26970  0.43930  Biso   1.000  H
  H32      1.0000 0.74170  0.36260  0.41420  Biso   1.000  H
  C27      1.0000 0.01250  0.97380  0.10596  Biso   1.000  C
  H33      1.0000 0.96770  0.94320  0.07890  Biso   1.000  H
  C28      1.0000 0.98820  0.04990  0.31569  Biso   1.000  C
  H34      1.0000 0.05710  0.03540  0.33530  Biso   1.000  H
  H35      1.0000 0.94740  0.98410  0.31450  Biso   1.000  H
  C29      1.0000 0.62110  0.13120  0.17271  Biso   1.000  C
  C30      1.0000 0.56818  0.98158  0.44499  Biso   1.000  C
  H36      1.0000 0.59670  0.05400  0.44550  Biso   1.000  H
  H37      1.0000 0.62380  0.93370  0.46060  Biso   1.000  H
  C31      1.0000 0.53059  0.94739  0.39257  Biso   1.000  C
  H38      1.0000 0.58820  0.95030  0.37520  Biso   1.000  H
  H39      1.0000 0.50640  0.87320  0.39190  Biso   1.000  H
  C32      1.0000 0.54790  0.41029  0.39750  Biso   1.000  C
  H40      1.0000 0.49130  0.43750  0.37220  Biso   1.000  H
  H41      1.0000 0.59750  0.46870  0.40660  Biso   1.000  H
  C33      1.0000 0.56750  0.38130  0.48740  Biso   1.000  C
  H42      1.0000 0.63790  0.39940  0.49100  Biso   1.000  H
  C34      1.0000 0.40250  0.35600  0.43579  Biso   1.000  C
  H43      1.0000 0.36030  0.35540  0.40430  Biso   1.000  H
  C35      1.0000 0.42510  0.33260  0.52164  Biso   1.000  C
  C36      1.0000 0.36060  0.33300  0.47562  Biso   1.000  C
  H44      1.0000 0.28960  0.31780  0.47200  Biso   1.000  H
  C37      1.0000 0.52820  0.35660  0.52747  Biso   1.000  C
  H45      1.0000 0.57100  0.35590  0.55880  Biso   1.000  H
  C38      1.0000 0.12140  0.04120  0.05181  Biso   1.000  C
  C39      1.0000 0.38340  0.30900  0.56413  Biso   1.000  C
  Ag2      1.0000 0.49754  0.82026  0.63362  Biso   1.000  Ag
  N7       1.0000 0.00207  0.92043  0.73484  Biso   1.000  N
  N8       1.0000 0.40014  0.67740  0.62377  Biso   1.000  N
  N9       1.0000 0.55432  0.98391  0.63297  Biso   1.000  N
  N10      1.0000 0.33850  0.83430  0.85598  Biso   1.000  N
  N11      1.0000 0.64730  0.70920  0.40186  Biso   1.000  N
  N12      1.0000 0.85710  0.95160  0.98549  Biso   1.000  N
  C40      1.0000 0.22184  0.74918  0.66478  Biso   1.000  C
  H46      1.0000 0.17750  0.68470  0.65990  Biso   1.000  H
  C41      1.0000 0.16737  0.83399  0.68943  Biso   1.000  C
  H47      1.0000 0.21110  0.89890  0.69350  Biso   1.000  H
  C42      1.0000 0.95774  0.01334  0.75738  Biso   1.000  C
  H48      1.0000 0.89150  0.03280  0.73640  Biso   1.000  H
  H49      1.0000 0.00450  0.07450  0.75820  Biso   1.000  H
  C43      1.0000 0.15165  0.80029  0.73968  Biso   1.000  C
  H50      1.0000 0.21860  0.78120  0.76010  Biso   1.000  H
  H51      1.0000 0.10740  0.73680  0.73640  Biso   1.000  H
  C44      1.0000 0.10289  0.88754  0.76454  Biso   1.000  C
  H52      1.0000 0.14940  0.94940  0.76990  Biso   1.000  H
  H53      1.0000 0.09300  0.86230  0.79660  Biso   1.000  H
  C45      1.0000 0.94086  0.99318  0.80793  Biso   1.000  C
  C46      1.0000 0.59202  0.02329  0.68348  Biso   1.000  C
  H54      1.0000 0.66440  0.00180  0.69430  Biso   1.000  H
  H55      1.0000 0.58960  0.10160  0.68330  Biso   1.000  H
  C47      1.0000 0.24043  0.78423  0.61531  Biso   1.000  C
  H56      1.0000 0.27900  0.85160  0.61910  Biso   1.000  H
  H57      1.0000 0.17370  0.79740  0.59340  Biso   1.000  H
  C48      1.0000 0.06255  0.86395  0.65970  Biso   1.000  C
  H58      1.0000 0.01800  0.80060  0.65510  Biso   1.000  H
  H59      1.0000 0.07050  0.88880  0.62720  Biso   1.000  H
  C49      1.0000 0.56883  0.89540  0.74792  Biso   1.000  C
  H60      1.0000 0.62930  0.86100  0.74290  Biso   1.000  H
  C50      1.0000 0.53120  0.98282  0.71938  Biso   1.000  C
  C51      1.0000 0.85695  0.93462  0.81534  Biso   1.000  C
  H61      1.0000 0.81270  0.90310  0.78840  Biso   1.000  H
  C52      1.0000 0.44165  0.03203  0.72687  Biso   1.000  C
  H62      1.0000 0.41540  0.09140  0.70760  Biso   1.000  H
  C53      1.0000 0.51903  0.85847  0.78335  Biso   1.000  C
  H63      1.0000 0.54520  0.79930  0.80270  Biso   1.000  H
  C54      1.0000 0.60831  0.95604  0.55409  Biso   1.000  C
  H64      1.0000 0.66710  0.96330  0.53760  Biso   1.000  H
  H65      1.0000 0.58910  0.88030  0.55330  Biso   1.000  H
  C55      1.0000 0.90210  0.96850  0.90057  Biso   1.000  C
  C56      1.0000 0.64066  0.99102  0.60631  Biso   1.000  C
  H66      1.0000 0.66550  0.06500  0.60720  Biso   1.000  H
  H67      1.0000 0.69800  0.94600  0.62280  Biso   1.000  H
  C57      1.0000 0.00614  0.03831  0.84778  Biso   1.000  C
  H68      1.0000 0.06400  0.07780  0.84300  Biso   1.000  H
  C58      1.0000 0.32502  0.71850  0.69594  Biso   1.000  C
  H69      1.0000 0.31390  0.68830  0.72700  Biso   1.000  H
  H70      1.0000 0.36770  0.78280  0.70350  Biso   1.000  H
  C59      1.0000 0.43025  0.90870  0.79035  Biso   1.000  C
  C60      1.0000 0.51785  0.02011  0.52611  Biso   1.000  C
  H71      1.0000 0.54090  0.09510  0.52440  Biso   1.000  H
  C61      1.0000 0.49480  0.61988  0.55864  Biso   1.000  C
  C62      1.0000 0.83730  0.92170  0.86121  Biso   1.000  C
  H72      1.0000 0.78000  0.88130  0.86600  Biso   1.000  H
  C63      1.0000 0.39093  0.99510  0.76200  Biso   1.000  C
  H73      1.0000 0.32970  0.02840  0.76670  Biso   1.000  H
  C64      1.0000 0.38190  0.63856  0.67095  Biso   1.000  C
  H74      1.0000 0.34170  0.57220  0.66570  Biso   1.000  H
  H75      1.0000 0.44850  0.62220  0.69240  Biso   1.000  H
  C65      1.0000 0.29953  0.70287  0.59222  Biso   1.000  C
  H76      1.0000 0.31090  0.73030  0.56070  Biso   1.000  H
  H77      1.0000 0.25830  0.63740  0.58580  Biso   1.000  H
  C66      1.0000 0.98750  0.02620  0.89404  Biso   1.000  C
  H78      1.0000 0.03230  0.05680  0.92110  Biso   1.000  H
  C67      1.0000 0.01180  0.95010  0.68431  Biso   1.000  C
  H79      1.0000 0.94290  0.96460  0.66470  Biso   1.000  H
  H80      1.0000 0.05260  0.01590  0.68550  Biso   1.000  H
  C68      1.0000 0.37890  0.86880  0.82729  Biso   1.000  C
  C69      1.0000 0.43182  0.01842  0.55501  Biso   1.000  C
  H81      1.0000 0.40330  0.94600  0.55450  Biso   1.000  H
  H82      1.0000 0.37620  0.06630  0.53940  Biso   1.000  H
  C70      1.0000 0.46941  0.05261  0.60743  Biso   1.000  C
  H83      1.0000 0.41180  0.04970  0.62480  Biso   1.000  H
  H84      1.0000 0.49360  0.12680  0.60810  Biso   1.000  H
  C71      1.0000 0.45210  0.58971  0.60250  Biso   1.000  C
  H85      1.0000 0.50870  0.56250  0.62780  Biso   1.000  H
  H86      1.0000 0.40250  0.53130  0.59340  Biso   1.000  H
  C72      1.0000 0.43250  0.61870  0.51260  Biso   1.000  C
  H87      1.0000 0.36210  0.60060  0.50900  Biso   1.000  H
  C73      1.0000 0.59750  0.64400  0.56421  Biso   1.000  C
  H88      1.0000 0.63970  0.64460  0.59570  Biso   1.000  H
  C74      1.0000 0.57490  0.66740  0.47836  Biso   1.000  C
  C75      1.0000 0.63940  0.66700  0.52438  Biso   1.000  C
  H89      1.0000 0.71040  0.68220  0.52800  Biso   1.000  H
  C76      1.0000 0.47180  0.64340  0.47253  Biso   1.000  C
  H90      1.0000 0.42900  0.64410  0.44120  Biso   1.000  H
  C77      1.0000 0.87860  0.95880  0.94819  Biso   1.000  C
  C78      1.0000 0.61660  0.69100  0.43587  Biso   1.000  C
  Ag3      1.0000 0.49754  0.67974  0.13362  Biso   1.000  Ag
  N13      1.0000 0.00207  0.57957  0.23484  Biso   1.000  N
  N14      1.0000 0.40014  0.82260  0.12377  Biso   1.000  N
  N15      1.0000 0.55432  0.51609  0.13297  Biso   1.000  N
  N16      1.0000 0.33850  0.66570  0.35598  Biso   1.000  N
  N17      1.0000 0.64730  0.79080  0.90186  Biso   1.000  N
  N18      1.0000 0.85710  0.54840  0.48549  Biso   1.000  N
  C79      1.0000 0.22184  0.75082  0.16478  Biso   1.000  C
  H91      1.0000 0.17750  0.81530  0.15990  Biso   1.000  H
  C80      1.0000 0.16737  0.66601  0.18943  Biso   1.000  C
  H92      1.0000 0.21110  0.60110  0.19350  Biso   1.000  H
  C81      1.0000 0.95774  0.48666  0.25738  Biso   1.000  C
  H93      1.0000 0.89150  0.46720  0.23640  Biso   1.000  H
  H94      1.0000 0.00450  0.42550  0.25820  Biso   1.000  H
  C82      1.0000 0.15165  0.69971  0.23968  Biso   1.000  C
  H95      1.0000 0.21860  0.71880  0.26010  Biso   1.000  H
  H96      1.0000 0.10740  0.76320  0.23640  Biso   1.000  H
  C83      1.0000 0.10289  0.61246  0.26454  Biso   1.000  C
  H97      1.0000 0.14940  0.55060  0.26990  Biso   1.000  H
  H98      1.0000 0.09300  0.63770  0.29660  Biso   1.000  H
  C84      1.0000 0.94086  0.50682  0.30793  Biso   1.000  C
  C85      1.0000 0.59202  0.47671  0.18348  Biso   1.000  C
  H99      1.0000 0.66440  0.49820  0.19430  Biso   1.000  H
  H100     1.0000 0.58960  0.39840  0.18330  Biso   1.000  H
  C86      1.0000 0.24043  0.71577  0.11531  Biso   1.000  C
  H101     1.0000 0.27900  0.64840  0.11910  Biso   1.000  H
  H102     1.0000 0.17370  0.70260  0.09340  Biso   1.000  H
  C87      1.0000 0.06255  0.63605  0.15970  Biso   1.000  C
  H103     1.0000 0.01800  0.69940  0.15510  Biso   1.000  H
  H104     1.0000 0.07050  0.61120  0.12720  Biso   1.000  H
  C88      1.0000 0.56883  0.60460  0.24792  Biso   1.000  C
  H105     1.0000 0.62930  0.63900  0.24290  Biso   1.000  H
  C89      1.0000 0.53120  0.51718  0.21938  Biso   1.000  C
  C90      1.0000 0.85695  0.56538  0.31534  Biso   1.000  C
  H106     1.0000 0.81270  0.59690  0.28840  Biso   1.000  H
  C91      1.0000 0.44165  0.46797  0.22687  Biso   1.000  C
  H107     1.0000 0.41540  0.40860  0.20760  Biso   1.000  H
  C92      1.0000 0.51903  0.64153  0.28335  Biso   1.000  C
  H108     1.0000 0.54520  0.70070  0.30270  Biso   1.000  H
  C93      1.0000 0.60831  0.54396  0.05409  Biso   1.000  C
  H109     1.0000 0.66710  0.53670  0.03760  Biso   1.000  H
  H110     1.0000 0.58910  0.61970  0.05330  Biso   1.000  H
  C94      1.0000 0.90210  0.53150  0.40057  Biso   1.000  C
  C95      1.0000 0.64066  0.50898  0.10631  Biso   1.000  C
  H111     1.0000 0.66550  0.43500  0.10720  Biso   1.000  H
  H112     1.0000 0.69800  0.55400  0.12280  Biso   1.000  H
  C96      1.0000 0.00614  0.46169  0.34778  Biso   1.000  C
  H113     1.0000 0.06400  0.42220  0.34300  Biso   1.000  H
  C97      1.0000 0.32502  0.78150  0.19594  Biso   1.000  C
  H114     1.0000 0.31390  0.81170  0.22700  Biso   1.000  H
  H115     1.0000 0.36770  0.71720  0.20350  Biso   1.000  H
  C98      1.0000 0.43025  0.59130  0.29035  Biso   1.000  C
  C99      1.0000 0.51785  0.47989  0.02611  Biso   1.000  C
  H116     1.0000 0.54090  0.40490  0.02440  Biso   1.000  H
  C100     1.0000 0.49480  0.88012  0.05864  Biso   1.000  C
  C101     1.0000 0.83730  0.57830  0.36121  Biso   1.000  C
  H117     1.0000 0.78000  0.61870  0.36600  Biso   1.000  H
  C102     1.0000 0.39093  0.50490  0.26200  Biso   1.000  C
  H118     1.0000 0.32970  0.47160  0.26670  Biso   1.000  H
  C103     1.0000 0.38190  0.86144  0.17095  Biso   1.000  C
  H119     1.0000 0.34170  0.92780  0.16570  Biso   1.000  H
  H120     1.0000 0.44850  0.87780  0.19240  Biso   1.000  H
  C104     1.0000 0.29953  0.79713  0.09222  Biso   1.000  C
  H121     1.0000 0.31090  0.76970  0.06070  Biso   1.000  H
  H122     1.0000 0.25830  0.86260  0.08580  Biso   1.000  H
  C105     1.0000 0.98750  0.47380  0.39404  Biso   1.000  C
  H123     1.0000 0.03230  0.44320  0.42110  Biso   1.000  H
  C106     1.0000 0.01180  0.54990  0.18431  Biso   1.000  C
  H124     1.0000 0.94290  0.53540  0.16470  Biso   1.000  H
  H125     1.0000 0.05260  0.48410  0.18550  Biso   1.000  H
  C107     1.0000 0.37890  0.63120  0.32729  Biso   1.000  C
  C108     1.0000 0.43182  0.48158  0.05501  Biso   1.000  C
  H126     1.0000 0.40330  0.55400  0.05450  Biso   1.000  H
  H127     1.0000 0.37620  0.43370  0.03940  Biso   1.000  H
  C109     1.0000 0.46941  0.44739  0.10743  Biso   1.000  C
  H128     1.0000 0.41180  0.45030  0.12480  Biso   1.000  H
  H129     1.0000 0.49360  0.37320  0.10810  Biso   1.000  H
  C110     1.0000 0.45210  0.91029  0.10250  Biso   1.000  C
  H130     1.0000 0.50870  0.93750  0.12780  Biso   1.000  H
  H131     1.0000 0.40250  0.96870  0.09340  Biso   1.000  H
  C111     1.0000 0.43250  0.88130  0.01260  Biso   1.000  C
  H132     1.0000 0.36210  0.89940  0.00900  Biso   1.000  H
  C112     1.0000 0.59750  0.85600  0.06421  Biso   1.000  C
  H133     1.0000 0.63970  0.85540  0.09570  Biso   1.000  H
  C113     1.0000 0.57490  0.83260  0.97836  Biso   1.000  C
  C114     1.0000 0.63940  0.83300  0.02438  Biso   1.000  C
  H134     1.0000 0.71040  0.81780  0.02800  Biso   1.000  H
  C115     1.0000 0.47180  0.85660  0.97253  Biso   1.000  C
  H135     1.0000 0.42900  0.85590  0.94120  Biso   1.000  H
  C116     1.0000 0.87860  0.54120  0.44819  Biso   1.000  C
  C117     1.0000 0.61660  0.80900  0.93587  Biso   1.000  C
  Ag4      1.0000 0.50246  0.32026  0.86638  Biso   1.000  Ag
  N19      1.0000 0.99793  0.42043  0.76516  Biso   1.000  N
  N20      1.0000 0.59986  0.17740  0.87623  Biso   1.000  N
  N21      1.0000 0.44568  0.48391  0.86703  Biso   1.000  N
  N22      1.0000 0.66150  0.33430  0.64402  Biso   1.000  N
  N23      1.0000 0.35270  0.20920  0.09814  Biso   1.000  N
  N24      1.0000 0.14290  0.45160  0.51451  Biso   1.000  N
  C118     1.0000 0.77816  0.24918  0.83522  Biso   1.000  C
  H136     1.0000 0.82250  0.18470  0.84010  Biso   1.000  H
  C119     1.0000 0.83263  0.33399  0.81057  Biso   1.000  C
  H137     1.0000 0.78890  0.39890  0.80650  Biso   1.000  H
  C120     1.0000 0.04226  0.51334  0.74262  Biso   1.000  C
  H138     1.0000 0.10850  0.53280  0.76360  Biso   1.000  H
  H139     1.0000 0.99550  0.57450  0.74180  Biso   1.000  H
  C121     1.0000 0.84835  0.30029  0.76032  Biso   1.000  C
  H140     1.0000 0.78140  0.28120  0.73990  Biso   1.000  H
  H141     1.0000 0.89260  0.23680  0.76360  Biso   1.000  H
  C122     1.0000 0.89711  0.38754  0.73546  Biso   1.000  C
  H142     1.0000 0.85060  0.44940  0.73010  Biso   1.000  H
  H143     1.0000 0.90700  0.36230  0.70340  Biso   1.000  H
  C123     1.0000 0.05914  0.49318  0.69207  Biso   1.000  C
  C124     1.0000 0.40798  0.52329  0.81652  Biso   1.000  C
  H144     1.0000 0.33560  0.50180  0.80570  Biso   1.000  H
  H145     1.0000 0.41040  0.60160  0.81670  Biso   1.000  H
  C125     1.0000 0.75957  0.28423  0.88469  Biso   1.000  C
  H146     1.0000 0.72100  0.35160  0.88090  Biso   1.000  H
  H147     1.0000 0.82630  0.29740  0.90660  Biso   1.000  H
  C126     1.0000 0.93745  0.36395  0.84030  Biso   1.000  C
  H148     1.0000 0.98200  0.30060  0.84490  Biso   1.000  H
  H149     1.0000 0.92950  0.38880  0.87280  Biso   1.000  H
  C127     1.0000 0.43117  0.39540  0.75208  Biso   1.000  C
  H150     1.0000 0.37070  0.36100  0.75710  Biso   1.000  H
  C128     1.0000 0.46880  0.48282  0.78062  Biso   1.000  C
  C129     1.0000 0.14305  0.43462  0.68466  Biso   1.000  C
  H151     1.0000 0.18730  0.40310  0.71160  Biso   1.000  H
  C130     1.0000 0.55835  0.53203  0.77313  Biso   1.000  C
  H152     1.0000 0.58460  0.59140  0.79240  Biso   1.000  H
  C131     1.0000 0.48097  0.35847  0.71665  Biso   1.000  C
  H153     1.0000 0.45480  0.29930  0.69730  Biso   1.000  H
  C132     1.0000 0.39169  0.45604  0.94591  Biso   1.000  C
  H154     1.0000 0.33290  0.46330  0.96240  Biso   1.000  H
  H155     1.0000 0.41090  0.38030  0.94670  Biso   1.000  H
  C133     1.0000 0.09790  0.46850  0.59943  Biso   1.000  C
  C134     1.0000 0.35934  0.49102  0.89369  Biso   1.000  C
  H156     1.0000 0.33450  0.56500  0.89280  Biso   1.000  H
  H157     1.0000 0.30200  0.44600  0.87720  Biso   1.000  H
  C135     1.0000 0.99386  0.53831  0.65222  Biso   1.000  C
  H158     1.0000 0.93600  0.57780  0.65700  Biso   1.000  H
  C136     1.0000 0.67498  0.21850  0.80406  Biso   1.000  C
  H159     1.0000 0.68610  0.18830  0.77300  Biso   1.000  H
  H160     1.0000 0.63230  0.28280  0.79650  Biso   1.000  H
  C137     1.0000 0.56975  0.40870  0.70965  Biso   1.000  C
  C138     1.0000 0.48215  0.52011  0.97389  Biso   1.000  C
  H161     1.0000 0.45910  0.59510  0.97560  Biso   1.000  H
  C139     1.0000 0.50520  0.11988  0.94136  Biso   1.000  C
  C140     1.0000 0.16270  0.42170  0.63879  Biso   1.000  C
  H162     1.0000 0.22000  0.38130  0.63400  Biso   1.000  H
  C141     1.0000 0.60907  0.49510  0.73800  Biso   1.000  C
  H163     1.0000 0.67030  0.52840  0.73330  Biso   1.000  H
  C142     1.0000 0.61810  0.13856  0.82905  Biso   1.000  C
  H164     1.0000 0.65830  0.07220  0.83430  Biso   1.000  H
  H165     1.0000 0.55150  0.12220  0.80760  Biso   1.000  H
  C143     1.0000 0.70047  0.20287  0.90778  Biso   1.000  C
  H166     1.0000 0.68910  0.23030  0.93930  Biso   1.000  H
  H167     1.0000 0.74170  0.13740  0.91420  Biso   1.000  H
  C144     1.0000 0.01250  0.52620  0.60596  Biso   1.000  C
  H168     1.0000 0.96770  0.55680  0.57890  Biso   1.000  H
  C145     1.0000 0.98820  0.45010  0.81569  Biso   1.000  C
  H169     1.0000 0.05710  0.46460  0.83530  Biso   1.000  H
  H170     1.0000 0.94740  0.51590  0.81450  Biso   1.000  H
  C146     1.0000 0.62110  0.36880  0.67271  Biso   1.000  C
  C147     1.0000 0.56818  0.51842  0.94499  Biso   1.000  C
  H171     1.0000 0.59670  0.44600  0.94550  Biso   1.000  H
  H172     1.0000 0.62380  0.56630  0.96060  Biso   1.000  H
  C148     1.0000 0.53059  0.55261  0.89257  Biso   1.000  C
  H173     1.0000 0.58820  0.54970  0.87520  Biso   1.000  H
  H174     1.0000 0.50640  0.62680  0.89190  Biso   1.000  H
  C149     1.0000 0.54790  0.08971  0.89750  Biso   1.000  C
  H175     1.0000 0.49130  0.06250  0.87220  Biso   1.000  H
  H176     1.0000 0.59750  0.03130  0.90660  Biso   1.000  H
  C150     1.0000 0.56750  0.11870  0.98740  Biso   1.000  C
  H177     1.0000 0.63790  0.10060  0.99100  Biso   1.000  H
  C151     1.0000 0.40250  0.14400  0.93579  Biso   1.000  C
  H178     1.0000 0.36030  0.14460  0.90430  Biso   1.000  H
  C152     1.0000 0.42510  0.16740  0.02164  Biso   1.000  C
  C153     1.0000 0.36060  0.16700  0.97562  Biso   1.000  C
  H179     1.0000 0.28960  0.18220  0.97200  Biso   1.000  H
  C154     1.0000 0.52820  0.14340  0.02747  Biso   1.000  C
  H180     1.0000 0.57100  0.14410  0.05880  Biso   1.000  H
  C155     1.0000 0.12140  0.45880  0.55181  Biso   1.000  C
  C156     1.0000 0.38340  0.19100  0.06413  Biso   1.000  C
